# generated using pymatgen
data_Na15Mn4Zn3Fe4(Ni2O15)2
_symmetry_space_group_name_H-M   'P 1'
_cell_length_a   14.84097225
_cell_length_b   5.07866713
_cell_length_c   31.60640000
_cell_angle_alpha   89.92663312
_cell_angle_beta   90.03153540
_cell_angle_gamma   89.94960266
_symmetry_Int_Tables_number   1
_chemical_formula_structural   Na15Mn4Zn3Fe4(Ni2O15)2
_chemical_formula_sum   'Na60 Mn16 Zn12 Fe16 Ni16 O120'
_cell_volume   2382.24565754
_cell_formula_units_Z   4
loop_
 _symmetry_equiv_pos_site_id
 _symmetry_equiv_pos_as_xyz
  1  'x, y, z'
loop_
 _atom_site_type_symbol
 _atom_site_label
 _atom_site_symmetry_multiplicity
 _atom_site_fract_x
 _atom_site_fract_y
 _atom_site_fract_z
 _atom_site_occupancy
  Na  Na0  1  0.00202900  0.33879900  0.25032600  1
  Na  Na1  1  0.20408800  0.32388500  0.25266800  1
  Na  Na2  1  0.40115700  0.34496300  0.24888100  1
  Na  Na3  1  0.59881900  0.32228300  0.24872900  1
  Na  Na4  1  0.79827800  0.33263900  0.25140700  1
  Na  Na5  1  0.00078100  0.34078700  0.58375800  1
  Na  Na6  1  0.19955500  0.33246800  0.58288300  1
  Na  Na7  1  0.39947100  0.33787600  0.58320800  1
  Na  Na8  1  0.59685600  0.33133200  0.58250000  1
  Na  Na9  1  0.80159500  0.32633300  0.58360200  1
  Na  Na10  1  0.99942700  0.33289700  0.91824800  1
  Na  Na11  1  0.19859200  0.33100100  0.91866900  1
  Na  Na12  1  0.40186100  0.33898700  0.91611000  1
  Na  Na13  1  0.59896100  0.34346400  0.91394900  1
  Na  Na14  1  0.80091200  0.32491800  0.91734000  1
  Na  Na15  1  0.10077800  0.82741500  0.25095300  1
  Na  Na16  1  0.30172900  0.82731500  0.25078800  1
  Na  Na17  1  0.50243200  0.83293900  0.24863900  1
  Na  Na18  1  0.70169600  0.82345100  0.25138500  1
  Na  Na19  1  0.90034000  0.84638900  0.25001800  1
  Na  Na20  1  0.09964900  0.83233400  0.58466900  1
  Na  Na21  1  0.30351800  0.83066500  0.58360400  1
  Na  Na22  1  0.50023800  0.83255600  0.58360200  1
  Na  Na23  1  0.69826700  0.83365500  0.58339500  1
  Na  Na24  1  0.89793200  0.83095300  0.58362400  1
  Na  Na25  1  0.09848000  0.83656300  0.91765200  1
  Na  Na26  1  0.29835200  0.83873400  0.91775300  1
  Na  Na27  1  0.50237900  0.83305300  0.91532600  1
  Na  Na28  1  0.70351000  0.84039200  0.91405700  1
  Na  Na29  1  0.90008000  0.83197300  0.91738400  1
  Na  Na30  1  0.10084600  0.15638200  0.08205100  1
  Na  Na31  1  0.29838900  0.17313800  0.08306100  1
  Na  Na32  1  0.50083000  0.17422900  0.08495200  1
  Na  Na33  1  0.70062700  0.16501600  0.08314800  1
  Na  Na34  1  0.90124800  0.16952200  0.08173200  1
  Na  Na35  1  0.10152900  0.17391000  0.41495000  1
  Na  Na36  1  0.30309000  0.17752900  0.41643300  1
  Na  Na37  1  0.50446200  0.16271000  0.41874100  1
  Na  Na38  1  0.70128700  0.17590200  0.41523700  1
  Na  Na39  1  0.89869300  0.16550400  0.41607700  1
  Na  Na40  1  0.09696700  0.17024900  0.74954500  1
  Na  Na41  1  0.30196700  0.15746300  0.74908100  1
  Na  Na42  1  0.50082800  0.16392500  0.74983700  1
  Na  Na43  1  0.70129800  0.16448100  0.75194300  1
  Na  Na44  1  0.89786700  0.16095000  0.75055500  1
  Na  Na45  1  0.00208800  0.66283100  0.08143800  1
  Na  Na46  1  0.20222800  0.67064900  0.08262000  1
  Na  Na47  1  0.40002700  0.66449300  0.08540400  1
  Na  Na48  1  0.59866200  0.67758300  0.08551500  1
  Na  Na49  1  0.80192600  0.67262100  0.08122000  1
  Na  Na50  1  0.00057400  0.65594200  0.41662000  1
  Na  Na51  1  0.20261800  0.67998100  0.41436000  1
  Na  Na52  1  0.40086900  0.65364200  0.41799500  1
  Na  Na53  1  0.60069000  0.67203200  0.41760200  1
  Na  Na54  1  0.80192400  0.67037100  0.41548500  1
  Na  Na55  1  0.99954600  0.66890400  0.74906400  1
  Na  Na56  1  0.19795400  0.66347500  0.74862800  1
  Na  Na57  1  0.40120500  0.66208900  0.74918100  1
  Na  Na58  1  0.59726200  0.65958200  0.75206100  1
  Na  Na59  1  0.79734800  0.67346600  0.75038900  1
  Mn  Mn60  1  0.60182700  0.00248100  0.99941800  1
  Mn  Mn61  1  0.00087100  0.00015600  0.33307500  1
  Mn  Mn62  1  0.40267700  0.00003000  0.33372100  1
  Mn  Mn63  1  0.40126900  0.00056700  0.16684300  1
  Mn  Mn64  1  0.80037500  0.99980200  0.16619500  1
  Mn  Mn65  1  0.00057400  0.00072100  0.49978100  1
  Mn  Mn66  1  0.40216200  0.99907300  0.50020300  1
  Mn  Mn67  1  0.40201200  0.99950700  0.83332100  1
  Mn  Mn68  1  0.70253500  0.50129000  0.99960800  1
  Mn  Mn69  1  0.50339800  0.49946600  0.33376000  1
  Mn  Mn70  1  0.89968400  0.50112700  0.33268700  1
  Mn  Mn71  1  0.10200500  0.49897400  0.16626600  1
  Mn  Mn72  1  0.90153400  0.50021200  0.16630900  1
  Mn  Mn73  1  0.70001300  0.50008400  0.49988400  1
  Mn  Mn74  1  0.30070800  0.49962500  0.83339200  1
  Mn  Mn75  1  0.89729100  0.49970200  0.83364600  1
  Zn  Zn76  1  0.20154400  0.00034800  0.33333300  1
  Zn  Zn77  1  0.79869100  0.00014700  0.66666700  1
  Zn  Zn78  1  0.00297400  0.00039600  0.16659100  1
  Zn  Zn79  1  0.60025800  0.00001900  0.50001800  1
  Zn  Zn80  1  0.99538300  0.99939700  0.83334700  1
  Zn  Zn81  1  0.79948700  0.99943100  0.83340200  1
  Zn  Zn82  1  0.90112500  0.49991200  0.00003600  1
  Zn  Zn83  1  0.10832700  0.50058100  0.33333300  1
  Zn  Zn84  1  0.29931000  0.50049600  0.33333300  1
  Zn  Zn85  1  0.09947700  0.49992400  0.66666700  1
  Zn  Zn86  1  0.49930600  0.49991000  0.16671100  1
  Zn  Zn87  1  0.90025300  0.50028400  0.49993200  1
  Fe  Fe88  1  0.39681300  0.00337600  0.00001300  1
  Fe  Fe89  1  0.60828400  0.99966500  0.33339000  1
  Fe  Fe90  1  0.19951800  0.99951500  0.66658100  1
  Fe  Fe91  1  0.59899800  0.99922300  0.66681800  1
  Fe  Fe92  1  0.20265400  0.99974500  0.16676200  1
  Fe  Fe93  1  0.20324200  0.00166300  0.49989500  1
  Fe  Fe94  1  0.80010200  0.99969200  0.49992900  1
  Fe  Fe95  1  0.19566500  0.99965900  0.83331400  1
  Fe  Fe96  1  0.29354800  0.50429700  0.99995300  1
  Fe  Fe97  1  0.49807000  0.50281700  0.99993500  1
  Fe  Fe98  1  0.30047200  0.49783000  0.66676400  1
  Fe  Fe99  1  0.69929500  0.49968600  0.66666700  1
  Fe  Fe100  1  0.89840800  0.50008600  0.66676100  1
  Fe  Fe101  1  0.69343200  0.49981600  0.16656900  1
  Fe  Fe102  1  0.10229500  0.50177500  0.49989600  1
  Fe  Fe103  1  0.09536400  0.49943800  0.83346200  1
  Ni  Ni104  1  0.00088100  0.00007800  0.00035300  1
  Ni  Ni105  1  0.19937900  0.00223200  0.99994300  1
  Ni  Ni106  1  0.80304100  0.99967800  0.00006600  1
  Ni  Ni107  1  0.80031100  0.00077200  0.33303200  1
  Ni  Ni108  1  0.99853500  0.00123100  0.66635100  1
  Ni  Ni109  1  0.39898500  0.99899400  0.66688000  1
  Ni  Ni110  1  0.59954900  0.99994300  0.16660400  1
  Ni  Ni111  1  0.60066000  0.99992000  0.83349300  1
  Ni  Ni112  1  0.09784000  0.50165500  0.00015000  1
  Ni  Ni113  1  0.70127000  0.50107700  0.33323100  1
  Ni  Ni114  1  0.49932100  0.49879300  0.66702200  1
  Ni  Ni115  1  0.30104000  0.49985100  0.16667000  1
  Ni  Ni116  1  0.30181200  0.50164200  0.50014800  1
  Ni  Ni117  1  0.50124600  0.49865200  0.50021900  1
  Ni  Ni118  1  0.50242500  0.50010900  0.83324000  1
  Ni  Ni119  1  0.69973300  0.49960600  0.83369200  1
  O  O120  1  0.00162300  0.34998700  0.13264400  1
  O  O121  1  0.19361600  0.33767900  0.13202300  1
  O  O122  1  0.39626100  0.31514500  0.13247600  1
  O  O123  1  0.60490600  0.33952300  0.13036300  1
  O  O124  1  0.80541900  0.32264300  0.13309900  1
  O  O125  1  0.00397900  0.31717900  0.46586200  1
  O  O126  1  0.19968400  0.34042200  0.46508600  1
  O  O127  1  0.40380600  0.31796300  0.46731400  1
  O  O128  1  0.60562900  0.34798500  0.46618100  1
  O  O129  1  0.79430400  0.33587100  0.46524500  1
  O  O130  1  0.99589900  0.34775600  0.79877300  1
  O  O131  1  0.20537900  0.34067000  0.79931900  1
  O  O132  1  0.39506100  0.32176500  0.80059800  1
  O  O133  1  0.60262700  0.31607800  0.80117200  1
  O  O134  1  0.80292200  0.34946400  0.80019900  1
  O  O135  1  0.00390200  0.30910600  0.03404900  1
  O  O136  1  0.19633700  0.34410500  0.03438100  1
  O  O137  1  0.40318300  0.34120200  0.03505600  1
  O  O138  1  0.60416200  0.32851200  0.03216000  1
  O  O139  1  0.79173800  0.34603600  0.03449900  1
  O  O140  1  0.99271300  0.32213900  0.36535300  1
  O  O141  1  0.20369300  0.33012000  0.36950200  1
  O  O142  1  0.41294000  0.32056800  0.36674200  1
  O  O143  1  0.59575300  0.33951400  0.36785200  1
  O  O144  1  0.80597600  0.34514200  0.36593600  1
  O  O145  1  0.99531300  0.31221000  0.69991900  1
  O  O146  1  0.20405300  0.32440400  0.70226500  1
  O  O147  1  0.40345300  0.33623100  0.70100300  1
  O  O148  1  0.59527100  0.33583700  0.70123400  1
  O  O149  1  0.79755100  0.34771700  0.70234600  1
  O  O150  1  0.10395400  0.81597800  0.13188300  1
  O  O151  1  0.30391000  0.84578700  0.13282400  1
  O  O152  1  0.49476400  0.84783000  0.13244400  1
  O  O153  1  0.70844100  0.83914600  0.13182100  1
  O  O154  1  0.89520200  0.82248600  0.13320600  1
  O  O155  1  0.09659800  0.84286100  0.46553100  1
  O  O156  1  0.30473700  0.84634200  0.46606900  1
  O  O157  1  0.49420200  0.83390700  0.46643800  1
  O  O158  1  0.70487000  0.81690700  0.46539600  1
  O  O159  1  0.90574800  0.85050100  0.46552800  1
  O  O160  1  0.10501200  0.83078500  0.79786600  1
  O  O161  1  0.30481300  0.82413600  0.80089000  1
  O  O162  1  0.49469100  0.84656800  0.79997000  1
  O  O163  1  0.69460800  0.81380700  0.80122800  1
  O  O164  1  0.89823700  0.81027600  0.79836900  1
  O  O165  1  0.09525100  0.82442900  0.03137500  1
  O  O166  1  0.30411600  0.83456000  0.03534900  1
  O  O167  1  0.50615200  0.84472200  0.03335100  1
  O  O168  1  0.69504400  0.82288900  0.03255900  1
  O  O169  1  0.90716000  0.84706600  0.03388200  1
  O  O170  1  0.08919400  0.84653400  0.36809800  1
  O  O171  1  0.31469700  0.84777400  0.36849200  1
  O  O172  1  0.50080200  0.82173500  0.36644300  1
  O  O173  1  0.70070400  0.84010600  0.36883700  1
  O  O174  1  0.90476600  0.82124200  0.36566900  1
  O  O175  1  0.09395200  0.84938500  0.69946900  1
  O  O176  1  0.29702700  0.82475400  0.70208400  1
  O  O177  1  0.49958700  0.81627700  0.69980200  1
  O  O178  1  0.69441600  0.83100700  0.70237000  1
  O  O179  1  0.90659100  0.83802100  0.69940000  1
  O  O180  1  0.10426000  0.18392200  0.20094200  1
  O  O181  1  0.30386500  0.15499600  0.20072900  1
  O  O182  1  0.49471500  0.15343100  0.20100300  1
  O  O183  1  0.70794200  0.15673700  0.19995500  1
  O  O184  1  0.89479700  0.17824300  0.19933900  1
  O  O185  1  0.09610700  0.16072000  0.53409700  1
  O  O186  1  0.30476700  0.15523100  0.53394800  1
  O  O187  1  0.49397900  0.16060000  0.53433700  1
  O  O188  1  0.70462200  0.18377600  0.53430000  1
  O  O189  1  0.90570600  0.15011500  0.53393000  1
  O  O190  1  0.10528100  0.16814400  0.86906400  1
  O  O191  1  0.30481400  0.17481900  0.86601200  1
  O  O192  1  0.49523000  0.15329000  0.86665200  1
  O  O193  1  0.69527000  0.18636400  0.86669000  1
  O  O194  1  0.89939100  0.18744600  0.86870200  1
  O  O195  1  0.09393300  0.17699700  0.96895000  1
  O  O196  1  0.30405100  0.17591900  0.96446600  1
  O  O197  1  0.50592300  0.16329100  0.96530600  1
  O  O198  1  0.69520300  0.17895300  0.96666100  1
  O  O199  1  0.90704700  0.15057300  0.96756700  1
  O  O200  1  0.09047600  0.15269800  0.29832600  1
  O  O201  1  0.31504300  0.15289800  0.29876100  1
  O  O202  1  0.50000000  0.17758800  0.30113400  1
  O  O203  1  0.69835400  0.16192100  0.29753000  1
  O  O204  1  0.90465000  0.17983200  0.29965400  1
  O  O205  1  0.09436700  0.15271100  0.63336300  1
  O  O206  1  0.29681700  0.17211000  0.63142800  1
  O  O207  1  0.49828000  0.18261800  0.63446300  1
  O  O208  1  0.69445200  0.16872200  0.63131800  1
  O  O209  1  0.90658200  0.16726400  0.63269600  1
  O  O210  1  0.00173400  0.64990600  0.19960700  1
  O  O211  1  0.19391300  0.65822900  0.20015200  1
  O  O212  1  0.39685600  0.68545100  0.20100800  1
  O  O213  1  0.60544000  0.66039400  0.20259500  1
  O  O214  1  0.80530600  0.67740100  0.19927800  1
  O  O215  1  0.00385200  0.68350700  0.53362800  1
  O  O216  1  0.19846300  0.67095000  0.53523600  1
  O  O217  1  0.40310200  0.68109900  0.53343300  1
  O  O218  1  0.60505500  0.65136200  0.53349900  1
  O  O219  1  0.79416400  0.66482400  0.53429000  1
  O  O220  1  0.99637500  0.65197900  0.86830600  1
  O  O221  1  0.20536100  0.65804100  0.86751200  1
  O  O222  1  0.39497400  0.67807000  0.86636400  1
  O  O223  1  0.60280200  0.68288900  0.86598200  1
  O  O224  1  0.80397100  0.65047500  0.86794600  1
  O  O225  1  0.00458600  0.68627800  0.96753600  1
  O  O226  1  0.19823900  0.66650900  0.96471300  1
  O  O227  1  0.40366800  0.67076800  0.96432400  1
  O  O228  1  0.60461100  0.67675700  0.96635100  1
  O  O229  1  0.79218000  0.65489600  0.96532300  1
  O  O230  1  0.99309700  0.67974100  0.29993100  1
  O  O231  1  0.20334600  0.67227700  0.29692200  1
  O  O232  1  0.41231700  0.67822100  0.30124400  1
  O  O233  1  0.59538100  0.65831300  0.29947700  1
  O  O234  1  0.80600500  0.65808100  0.29898200  1
  O  O235  1  0.99552400  0.68822300  0.63331700  1
  O  O236  1  0.20466500  0.67170000  0.63142300  1
  O  O237  1  0.40410600  0.65779900  0.63417500  1
  O  O238  1  0.59528900  0.66370500  0.63243900  1
  O  O239  1  0.79742200  0.65182600  0.63119300  1
