CRYSTAL
# Primitive lattice vectors in Angstrom
PRIMVEC
 14.84097000000000 0.00000000000000 -0.00816842000000
 0.00447077300000 5.07866100000000 0.00650319900000
 0.00000000000000 0.00000000000000 31.60640000000000
# Cartesian coordinates in Angstrom.
PRIMCOORD
 240 1
Na     0.03162702155163     1.72064526813900     7.91409038999382
Na     3.03031190167310     1.64490211798500     7.98636508730716
Na     5.95510125355640     1.75195013454300     7.86519898257470
Na     8.88849566856476     1.63676610306300     7.85863273098734
Na    11.84870700311995     1.68936071637900     7.94171275243140
Na     0.01311437888835     1.73074164620700    18.45269867734159
Na     2.96307615730776     1.68849226534800    18.42336530771203
Na     5.93004769376815     1.71595766403600    18.43203955915951
Na     8.85940330047964     1.68272290645200    18.40800734744355
Na    11.89790630791541     1.65733468011300    18.44113269660937
Na    14.83395443110938     1.69067101091700    29.01651474314216
Na     2.94877774457377     1.68104186966100    29.03635026410756
Na     5.96552257909695     1.72160005640700    28.95386103448979
Na     8.89069778174767     1.74433722170400    28.88397872332972
Na    11.88776359926161     1.65014837479800    28.98938579681365
Na     1.49934245930180     4.20216029131500     7.93627854656982
Na     4.48164977469450     4.20165242521500     7.92942138808251
Na     7.46030212023185     4.23021481467900     7.85989638207442
Na    10.41753074761762     4.18202847911100     7.94499818207943
Na    13.36570294288870     4.29852280512900     7.90031879603561
Na     1.48260899590418     4.22714222477400    18.48388114035189
Na     4.50821524711404     4.21866593956500    18.44854418289578
Na     7.42773931974579     4.22826968751600    18.44688637606268
Na    10.36668668125531     4.23385113595500    18.43873341423421
Na    13.32989687627667     4.22012859393300    18.44432276061121
Na     1.46527880887320     4.24861988214300    29.00831208246344
Na     4.43158287076138     4.25964565517400    29.00988580886623
Na     7.45951605848997     4.23079378203300    28.93147355316537
Na    10.44452800656302     4.26806607511200    28.88976983605981
Na    13.36177984002513     4.22530882815300    28.99326391210803
Na     1.49735160904329     0.79421116450200     2.59352995718270
Na     4.42915625802567     0.87930920821800     2.62394777459308
Na     7.43358194340902     0.88485002736900     2.68206894886997
Na    10.39872203726737     0.83806032357600     2.62335906348684
Na    13.37615242494051     0.86094477004200     2.57699494791272
Na     1.50756635526243     0.88322993451000    13.11537731982391
Na     4.49894328915992     0.90160960866900    13.16062671119747
Na     7.48743284761483     0.82634893131000    13.23183302041925
Na    10.40856574630225     0.89334662722200    13.11956223575396
Na    13.33821578302459     0.84053871014400    13.14443149637223
Na     1.43984548262248     0.86463695658900    23.69073418394441
Na     4.48218716931890     0.79970119704300    23.67431113834200
Na     7.43350619462403     0.83251950442500    23.69662322024431
Na    10.40867793627381     0.83534323994100    23.76155239126556
Na    13.32593678190435     0.81741048795000    23.71605408711891
Na     0.03395131229836     3.36629394929100     2.57825546943541
Na     3.00425800060168     3.40599892098900     2.61403024866639
Na     5.93975950355309     3.37473468387300     2.70036672726577
Na     8.88775410192166     3.44121435636300     2.70233763043398
Na    11.90436684402603     3.41601404048100     2.56489552783766
Na     0.01145128456317     3.33130705366200    13.17211940068538
Na     3.01008770015531     3.45339298544100    13.09919488683566
Na     5.95220708793527     3.31962613336200    13.21229346564378
Na     8.91782677182074     3.41302270915200    13.19835952242057
Na    11.90432710284678     3.40458705323100    13.12979420797675
Na    14.83722271756279     3.39713665754400    23.67140171388657
Na     2.94079562149617     3.36956460697500    23.66413375774384
Na     5.95723141847480     3.36252558282900    23.67994284397661
Na     8.86689626553689     3.34979337970200    23.76935149653678
Na    11.83642866116922     3.42030550902600    23.71496149966757
Mn     8.93170754417781     0.01260015794100    31.58310523393338
Mn     0.01292718231059     0.00079227111600    10.52729557980522
Mn     5.97611741081319     0.00015235983000    10.54443037463563
Mn     5.95522372585829     0.00287960078700     5.27003254878885
Mn    11.88281125153695     5.07765542512200     5.25278976020910
Mn     0.00852194020733     0.00366171458100    15.79627819853340
Mn     5.97294080573343     5.07395308125300    15.81282824161049
Mn     5.97071660054891     5.07615722012700    26.34149304446185
Mn    10.42854201274717     2.54588197269000    31.59153167888201
Mn     7.47314761516722     2.53661849502600    10.54808822450057
Mn    13.35442367854117     2.54505415094700    10.51094832862599
Mn     1.51608394433690     2.53411979381400     5.25748140993573
Mn    13.38187538228387     2.54040717613200     5.25231764742191
Mn    10.39110769465493     2.53975710752400    15.79706780317925
Mn     4.46503211672013     2.53742600212500    26.34131376035902
Mn    13.31890286647964     2.53781705902200    26.34446914619648
Zn     2.99111001350900     0.00176737402800    10.53381209827277
Zn    11.85334982747363     0.00074656316700    21.06442078123203
Zn     0.04413881520611     0.00201114975600     5.26532006478572
Zn     8.90841105520469     0.00009649455900    15.79886587930842
Zn    14.77691731863388     5.07559856741700    26.33746719196614
Zn    11.86963081152016     5.07577124189100    26.34080592587923
Zn    13.37580408432198     2.53888357783200    -0.00297190985401
Zn     1.60991574120911     2.54228120204100    10.53782664862528
Zn     4.44428833470341     2.54184951585600    10.53626606649650
Zn     1.47857021941125     2.53894452176400    21.07338240414053
Zn     7.41242035095043     2.53887342051000     5.26830702349557
Zn    13.36286442160953     2.54077283972400    15.79695056659826
Fe     5.88910492193965     0.01714555953600    -0.00280849724564
Fe     9.03199387077105     5.07695964856500    10.53878999723706
Fe     2.96550925713509     5.07619784941500    21.07309601652693
Fe     8.89417864726938     5.07471488040300    21.07732171397122
Fe     3.01205156733289     5.07736594144500     5.27559265449757
Fe     3.01631585963550     0.00844581324300    15.79823197680230
Fe    11.87875917494192     5.07709677241200    15.80092157243587
Fe     2.90832764351641     5.07692917659900    26.34295831710984
Fe     4.35879165897158     2.56115350631700    31.60579621959194
Fe     7.39408990856754     2.55363708803700    31.60354705806218
Fe     4.46152162276259     2.52830980563000    21.07479279566393
Fe    10.38045009882728     2.53773580044600    21.06848129103161
Fe    13.33548194674648     2.53976726484600    21.06982845529976
Fe    10.29343807291777     2.53839602637600     5.26223260069394
Fe     1.52040034827207     2.54834512327500    15.80234048855433
Fe     1.41752713700557     2.53647629251800    26.34520232829728
Ni     0.01307524329029     0.00039613555800     0.01115037007150
Ni     2.95898773639534     0.01133557135200    31.60298433892899
Ni    11.92237672318110     5.07702567115800     0.00202755120470
Ni    11.87739499310676     0.00392072629200    10.51941034889101
Ni    14.81923348247156     0.00625183169100    21.05280779857327
Ni     5.92579069085236     5.07355186703400    21.08091361172811
Ni     8.90235924069594     5.07837151632300     5.26735812587508
Ni     8.91884745553816     5.07825470712000    26.34530939078688
Ni     1.45428329042932     2.54773568395500     0.00720412408154
Ni    10.40976723342252     2.54480021789700    10.52976261395192
Ni     7.41263797164699     2.53320055617300    21.08132922729599
Ni     4.46996032915482     2.53857377951100     5.26863029736655
Ni     4.48142556514927     2.54766966136200    15.80867469777572
Ni     7.44120620851800     2.53248446497200    15.80927024693643
Ni     7.45871022606426     2.53988407404900    26.33486502593019
Ni    10.38695008602544     2.53732950756600    26.34753615300773
O     0.02565160673995     1.77746532740700     4.19466209936275
O     2.87495893367587     1.71495716781900     4.17338620412840
O     5.88230655492709     1.60051462084500     4.18590207077124
O     8.97890972908128     1.72432221870300     4.11757198256556
O    11.95464168004304     1.63859442102300     4.20229944456698
O     0.06047025493937     1.61084461731900    14.72625089281244
O     2.96502620296621     1.72888793494200    14.70027687963070
O     5.99429427221540     1.61482628754300    14.76888252925712
O     8.98967758207240     1.76729784808500    14.73161914206784
O    11.78974343787828     1.70577494873100    14.70041559527165
O    14.78166192016539     1.76613483471600    25.24046555236186
O     3.04954663586791     1.73014744287000    25.26413386447215
O     5.86452698744435     1.63413535666500    25.30288610485261
O     8.94498234117829     1.60525301155800    25.31929570849418
O    11.91770368855567     1.77480918770400    25.28712370341210
O     0.05929140769894     1.56984458706600     1.07814461825525
O     2.91536994223316     1.74759264340500     1.08729365861436
O     5.98515224419915     1.73284929052200     1.10691949482434
O     8.96781881971978     1.66840108243200     1.01366315394585
O    11.75170695426583     1.75739953779600     1.08617228605520
O    14.73426406195345     1.63603477587900    11.54147909649920
O     3.02447759379276     1.67656756932000    11.67911099887882
O     6.12986333855906     1.62805619944800    11.59010599894223
O     8.84307029043432     1.72427651075400    11.62381901918503
O    11.96300868825477     1.75285921486200    11.56158056703134
O    14.77280619364833     1.58560875081000    22.11582011074433
O     3.02979478805429     1.64753794304400    22.19651136916214
O     5.98913708188656     1.70760326669100    22.15507222274871
O     8.83590050386200     1.70560227425700    22.16080388890074
O    11.83798502824524     1.76593676693700    22.19437515570726
O     1.54642624779099     4.14407564545800     4.17280417858094
O     4.51410051438335     4.29546545120700     4.20110633025041
O     7.34656813655259     4.30584115563000     4.18755020865529
O    10.51770325904986     4.26173806350600     4.16605754419483
O    13.28934317414168     4.17712757124600     4.20819852261187
O     1.43737626026155     4.28060528912100    14.71845123817718
O     4.52637647785237     4.29828410806200    14.73377795224252
O     7.33816526484011     4.23513095852700    14.74381221686765
O    10.46460672965911     4.14879372152700    14.70904696898009
O    13.44598129246727     4.31940625916100    14.71179662637454
O     1.56219419278680     4.21927537888500    25.22221692046017
O     4.52740511358713     4.18550736189600    25.31611937580560
O     7.34547910362706     4.29943188544800    25.28563636431281
O    10.31229483612281     4.13304987242700    25.32355115818923
O    13.33433092995335     4.11511712043600    25.23150217059738
O     1.41730306838362     4.18699540956900     0.99623417567495
O     4.51710756083488     4.23844732416000     1.12019779614072
O     7.51556320775011     4.29005667724200     1.05546397954584
O    10.31880610260320     4.17917427162900     1.02874677721143
O    13.46692138500202     4.30196105862600     1.06898661967693
O     1.32751013953078     4.29925921097400    11.63902923220879
O     4.67419894119930     4.30555675061400    11.64964821456029
O     7.43606124859116     4.17331349683500    11.58319718035743
O    10.40288296610194     4.26661357806600    11.65734948873141
O    13.43127664958006     4.17080971696200    11.55543087306344
O     1.39813622096460     4.31373847348500    22.11245328188678
O     4.41185608410484     4.18864597439400    22.19328503570071
O     7.41800506856212     4.14559416509700    22.11944950812758
O    10.30952226717841     4.22040284162700    22.19911909034867
O    13.45843643493023     4.25602456988100    22.10356056127296
O     1.54814180571171     0.93407748844200     6.35139767069728
O     4.51034430098191     0.78717214035600     6.34284693848890
O     7.34273642872216     0.77922403589100     6.34993797162547
O    10.50724671928770     0.79601408915700     6.31509423631002
O    13.28045231708184     0.90523577262300     6.29423824158862
O     1.42703964642656     0.81624239592000    16.88114357260234
O     4.52373190655356     0.78836562569100    16.87469410042583
O     7.33184552577380     0.81563295660000    16.88547834261622
O    10.45809558411885     0.93333600393600    16.88273900346218
O    13.44222670490890     0.76238319601500    16.86918319271337
O     1.56322389622531     0.85394637518400    27.46821790406663
O     4.52451700564509     0.88784643735900    27.37016871077210
O     7.35037889789317     0.77850794469000    27.38870140153811
O    10.31931440303937     0.94647957860400    27.38848352080504
O    13.34867287778576     0.95197468980600    27.45041528800753
O     1.39484814841868     0.89890776101700    30.62540504251754
O     4.51319826338539     0.89343296445900    30.48195860239546
O     7.50911810230394     0.82929963335100    30.50677688071625
O    10.31828692515067     0.90884162193300    30.54815928728139
O    13.46213049329293     0.76470922275300    30.57487969412729
O     1.34343427981555     0.77550137737800     9.42926486591298
O     4.67622728396015     0.77651710957800     9.44118059297864
O     7.42127895563552     0.90190924966800     9.51483233770401
O    10.36497467541493     0.82234186778100     9.39920074770460
O    13.42668749855014     0.91330576495200     9.46476410772957
O     1.40118055220560     0.77556739997100    20.01854660393235
O     4.40582165723103     0.87408834471000    19.95586067886075
O     7.39577497522371     0.92745491449800    20.05020880407738
O    10.30709561620210     0.85688184124200    19.94911389233584
O    13.45530406391507     0.84947715350400    19.99092526293710
O     0.02863982417734     3.30065225586600     6.31307098880901
O     2.88079980805102     3.34292195136900     6.32878080414711
O     5.89279248614362     3.48117326111100     6.35435518897023
O     8.98826934846456     3.35391725243400     6.40264779339561
O    11.95455069292097     3.44029004006100     6.29628737506928
O     0.06022322108091     3.47130034412700    16.87047353648505
O     2.94838309425435     3.40752759795000    16.91962530263059
O     5.98546972795953     3.45907092843900    16.86103338709686
O     8.98251519499282     3.30804678628200    16.86127638694394
O    11.78913637626895     3.37641572066400    16.88481987367110
O    14.79008633385977     3.31118032011900    27.44012789810332
O     3.05069839210569     3.34196716310100    27.42153317347354
O     5.86482878182811     3.44368766427000    27.38383044022485
O     8.94921943964320     3.46816173162900    27.37009050794907
O    11.93461761793717     3.30354201397500    27.43031144997370
O     0.07112888157289     3.48537331375800    30.58475537242920
O     2.94503886227146     3.38497326444900    30.49382010444991
O     5.99382352942366     3.40660328164800    30.47987488162227
O     8.97603933959316     3.43701938237700    30.54233861526102
O    11.75964750595461     3.32599477425600    30.50817292725671
O    14.74156175179979     3.45217410680100     9.47604761599472
O     3.02085748348012     3.41426698109700     9.38734643638080
O     6.12221639962483     3.44445454208100     9.52228098929984
O     8.83897472755595     3.34334855889300     9.46480767117527
O    11.96483815561661     3.34217030954100     9.44744052913902
O    14.77761870708638     3.49525130940300    20.01321422177330
O     3.04043014327410     3.41133659370000    19.95970431628900
O     6.00026589282863     3.34073812713900    20.04496561026648
O     8.83763346472396     3.37073269900500    19.98857364471892
O    11.83743014542150     3.31040328498600    19.94746371157813