CRYSTAL
# Primitive lattice vectors in Angstrom
PRIMVEC
 14.84097000000000 0.00650320000000 -0.00409235000000
 0.00224266000000 5.07866600000000 0.00325944000000
 -0.00868954000000 0.02019094000000 31.60639000000000
# Cartesian coordinates in Angstrom.
PRIMCOORD
 240 1
Ni     0.01307200208986     0.00040899266902     0.01115370454597
Ni     2.95029371855090     0.03282197314122    31.60377978218943
Ni    11.92014875412384     5.08225433838124     0.00205808736397
Ni    11.87449937811824     0.01584954177728    10.52266663804683
Ni    14.81344045599592     0.02619976371794    21.05686724055339
Ni     5.91776993889884     5.08961647532320    21.07929273793861
Ni     8.89868354257622     5.08563939446256     5.26655668942177
Ni     8.90937685002398     5.09899492598542    26.34450588856380
Ni     1.45316424297130     2.54837749395900     0.00597567734920
Ni    10.40575515314108     2.55609146947314    10.53099233422238
Ni     7.40573049012950     2.54991803564588    21.08173986014157
Ni     4.46739831901186     2.54389922606380     5.26823429459944
Ni     4.47596179403580     2.55973337162952    15.80827269738228
Ni     7.43574848250506     2.54584655303506    15.80969085161678
Ni     7.45035545439034     2.55997784369960    26.33528237993021
Ni    10.37859250742028     2.55871553439208    26.34875937531809
Fe     5.88909728686614     0.01972639319982    -0.00120201074111
Fe     9.02686949844830     5.08765189688540    10.53802339916020
Fe     2.95748994250716     5.09095924942374    21.07066041427430
Fe     8.88615792382946     5.09207896254052    21.07651536496982
Fe     3.00837493743222     5.08205592119908     5.27317408692590
Fe     3.01196829668528     0.01986089488370    15.79905001210002
Fe    11.87218759515806     5.09239903064166    15.80093508498278
Fe     2.89885917496738     5.09503201649716    26.34050487532821
Fe     4.34897889667840     2.58325502018142    31.60534692432588
Fe     7.38428060029332     2.57706827853490    31.60393620972798
Fe     4.45461852881924     2.54372891620856    21.07439603238600
Fe    10.37354325184596     2.55574765763680    21.07137927744259
Fe    13.32857385224882     2.55907482352694    21.07186160312304
Fe    10.29087701840230     2.54627123712326     5.26343612972784
Fe     1.51493847058366     2.55910624713624    15.80112481400275
Fe     1.40917193131760     2.55392734210708    26.34396264750932
Mn     8.92301753354174     0.03669316056532    31.58554028096719
Mn     0.01003256618946     0.00752303352370    10.52729529328579
Mn     5.97321746199146     0.00950918973414    10.54606827975225
Mn     5.95377267359600     0.00885785318522     5.27166464168033
Mn    11.87913942160302     5.08622105610530     5.25280736604963
Mn     0.00417746674712     0.01375649920694    15.79627320163734
Mn     5.96636822421756     5.08667298529722    15.81122172800842
Mn     5.96124840984628     5.09560211641214    26.33988118047788
Mn    10.41873894828108     2.57063622990352    31.59275920069036
Mn     7.46913452760916     2.54663361836400    10.54851662505374
Mn    13.35041621396384     2.55762474482658    10.51298664150148
Mn     1.51352739882320     2.53814271443004     5.25627697539281
Mn    13.37931570471606     2.54963046814126     5.25436813284638
Mn    10.38564968898008     2.55440506033656    15.79829395435241
Mn     4.45667710264282     2.55621103238408    26.34091047020620
Mn    13.31054547369448     2.56048691673044    26.34649731780303
Zn     2.98821256258760     0.00980874693968    10.53522966497672
Zn    11.84755673975358     0.01940061869104    21.06668936006383
Zn     0.04269033371522     0.00539412113834     5.26532923657934
Zn     8.90406608645882     0.01409592591652    15.80130751112306
Zn    14.76744914709564     5.09890279840378    26.33827430626763
Zn    11.86016208630138     5.09780263268228    26.34081444353419
Zn    13.37468991107248     2.54474700036584    -0.00092045568447
Zn     1.60590404483990     2.54971810006756    10.53604057819619
Zn     4.44027654965852     2.55052906021324    10.53627013634374
Zn     1.47166348516500     2.55305414959764    21.07149584552161
Zn     7.40985785307766     2.54548905863754     5.26871897503130
Zn    13.35740555321416     2.55672396346968    15.79899226079641
Na     0.02869692130530     1.72571447437324     7.91299717477441
Na     3.02739468060138     1.65133256691952     7.98614383271760
Na     5.95216997560684     1.75958580489854     7.86571266094177
Na     8.88561624502812     1.64568402651406     7.86002566347687
Na    11.84578123465696     1.69962988471618     7.94388507461886
Na     0.00728247845210     1.74253505189372    18.45159059227393
Na     2.95727039589106     1.70156062944402    18.42309443296367
Na     5.92422705861584     1.73033271095872    18.43256601052259
Na     8.85360339829312     1.69836725960120    18.40935958812248
Na    11.89210796819270     1.67433271734788    18.44333567231527
Na    14.82523354625010     1.71571243934152    29.01949945743423
Na     2.94005742592040     1.70088379881926    29.03607686483824
Na     5.95680670326602     1.74271225584060    28.95439029482393
Na     8.88199070875078     1.76668759162126    28.88529687636181
Na    11.87906838261828     1.67388044720600    28.99158724110272
Na     1.49531821905228     4.20788678484542     7.93400288036930
Na     4.47762719103038     4.20868241128352     7.92796513825045
Na     7.45628567948168     4.23850665028706     7.85923999030896
Na    10.41351158572676     4.19167156524510     7.94518475365184
Na    13.36164455114302     4.30943022659892     7.90124066278316
Na     1.47567395703618     4.23959944051966    18.48158157905781
Na     4.50129318132674     4.23242744449536    18.44708103040030
Na     7.42081305797588     4.24331047102348    18.44621893412934
Na    10.35975976952400     4.25017556762570    18.43886958954575
Na    13.32297399500202     4.23775609724696    18.44528154678612
Na     1.45544087821750     4.26779275656688    29.00599070855672
Na     4.42173922522882     4.28012038732822    29.00837208401176
Na     7.44970616038094     4.25254631075724    28.93080990870967
Na    10.43471278335894     4.29110101334758    28.88990222238198
Na    13.35195446520482     4.24968923357496    28.99422480744712
Na     1.49629018682958     0.79652445493714     2.59343292650798
Na     4.42804872511514     0.88292763692014     2.62460158048857
Na     7.43245554770706     0.88982315690488     2.68354436060126
Na    10.39763184510064     0.84429630244152     2.62567876456759
Na    13.37506449728524     0.86845685955368     2.58011779201488
Na     1.50357313950760     0.89226929800580    13.11522288750725
Na     4.49492912327632     0.91198972491902    13.16128210163226
Na     7.48343164467946     0.83808513654494    13.23335726340670
Na    10.40456559824834     0.90629214170318    13.12184599459043
Na    13.33423150367606     0.85478490372398    13.14755361608921
Na     1.43295294735304     0.88040242175070    23.69056968604811
Na     4.47532715464884     0.81679038567854    23.67502371413827
Na     7.42662521259552     0.85091722257638    23.69812539866620
Na    10.40177741524324     0.85508717949602    23.76386987485034
Na    13.31905618942230     0.83840471234610    23.71918426730055
Na     0.03176679117194     3.36795515189932     2.57611310186784
Na     3.00204578905154     3.40898557882640     2.61267829422076
Na     5.93753681658722     3.37906384896416     2.69984095613047
Na     8.88550128441768     3.44683759123050     2.70257904754782
Na    11.90216240399306     3.42287239689600     2.56598160172614
Na     0.00636953551092     3.33972601563160    13.16998985638358
Na     3.00497202785506     3.46308036862200    13.09781093389834
Na     5.94711851542542     3.33067604481810    13.21180299867833
Na     8.91270063930204     3.42536425344588    13.19862389104058
Na    11.89922306697996     3.41819450994870    13.13088422952084
Na    14.82922330227408     3.41876455589136    23.67329867934066
Na     2.93281209127238     3.38597076183312    23.66278099282210
Na     5.94924617110000     3.38026467825014    23.67942303467841
Na     8.85889157816618     3.36886561037774    23.76963893259838
Na    11.82840756758850     3.44064524914526    23.71601948064124
O     0.02371918081166     1.78015583908096     4.19353211490323
O     2.87305932756672     1.71888364825682     4.17307872697216
O     5.88045322075466     1.60576797607264     4.18649367915545
O     8.97702043896816     1.73088989252842     4.11893498734802
O    11.95276622589592     1.64652122900186     4.20453448166527
O     0.05571541780266     1.62027827113708    14.72523360063911
O     2.96022632088208     1.73957874556164    14.69998190780628
O     5.98952507102602     1.62688941747236    14.76949240229662
O     8.98485133372336     1.78065074712294    14.73295428698025
O    11.78495231429956     1.72033587973910    14.70255909694784
O    14.77394611056654     1.78874108158942    25.24338888201399
O     3.04184187018894     1.74762376890266    25.26385795908415
O     5.85685323031998     1.65287095236732    25.30344466704825
O     8.93731626753660     1.62535001163608    25.32071876575287
O    11.90997168205578     1.79618926737146    25.28925489070346
O     0.05830681445450     1.57055898939846     1.07715751722094
O     2.91430448233456     1.74956536741654     1.08697740446925
O     5.98408738707308     1.73618078981024     1.10745576933683
O     8.96680740225552     1.67298105194080     1.01505982519258
O    11.75063616651530     1.76324666577666     1.08827666318554
O    14.73037155035212     1.64986901825742    11.54447686936661
O     3.02053124672012     1.68535446894948    11.67886674106425
O     6.12596225755220     1.63814809941348    11.59074565853292
O     8.83911735020916     1.73557978689448    11.62514237000261
O    11.95905985736828     1.76549095551504    11.56374256479688
O    14.76602858034134     1.60621505389546    22.11885734301685
O     3.02296961947654     1.66304595301270    22.19628379242921
O     5.98229652761584     1.72438259290842    22.15561906305609
O     8.82905882018406     1.72363369342916    22.16213386853443
O    11.83110721181638     1.78530616513044    22.19649109580363
O     1.54346215399766     4.14741860074082     4.17057974755042
O     4.51106182591246     4.30012790906856     4.19960023125078
O     7.34352819807204     4.31173711288216     4.18681542071980
O    10.51468808308602     4.26901098264894     4.16622189370189
O    13.28635308352752     4.18564291567604     4.20917815020314
O     1.43145302046452     4.29063720802874    14.71610628512254
O     4.52044080702146     4.30968047664526    14.73227009141653
O     7.33225409415410     4.24776684418012    14.74311696109738
O    10.45874249139478     4.16277849935824    14.70926556504758
O    13.44004105595554     4.33470021997592    14.71272504307164
O     1.55341002140646     4.23607211138244    25.21994211174220
O     4.51860947976116     4.20366446441420    25.31468050746329
O     7.33664148314708     4.31880533907100    25.28489869718807
O    10.30351927941150     4.15374866268192    25.32373462295928
O    13.32558808410390     4.13708240725126    25.23252712372849
O     1.41519351309364     4.18825245875970     0.99394786267991
O     4.51494090030014     4.24114295366926     1.11872992924380
O     7.51339126683198     4.29402589657834     1.05478668242848
O    10.31668969019188     4.18435579303026     1.02891024601876
O    13.46473960724128     4.30854884629708     1.06993625055704
O     1.32242536382552     4.30727573469692    11.63664315993506
O     4.66910797895516     4.31504772687688    11.64817728209861
O     7.43104610904888     4.18397324970282    11.58256930963370
O    10.39780609113698     4.27862176258558    11.65747681751624
O    13.42626933420146     4.18408089826206    11.55645119479438
O     1.39016563134984     4.32847664566726    22.11007404188720
O     4.40391765199428     4.20475746006936    22.19181341449431
O     7.41010535369574     4.16297682085428    22.11883105582543
O    10.30156741746882     4.23910443332100    22.19924696843848
O    13.45049176516986     4.27604604601320    22.10453055748939
O     1.54598591316584     0.93881363954948     6.35122403369268
O     4.50825470970470     0.79320191739926     6.34358073653949
O     7.34064794350784     0.78650047314682     6.35145476137839
O    10.50515997456972     0.80465604066410     6.31746944085358
O    13.27832300732232     0.91508054947706     6.29730532607097
O     1.42204048685982     0.82765212304358    16.88100863354535
O     4.51874627184054     0.80112927463152    16.87542748061819
O     7.32684454809102     0.82963497013958    16.88696554453335
O    10.45304328920216     0.94870723984840    16.88500962400374
O    13.43725262563370     0.77905448244340    16.87238263758650
O     1.55529748600248     0.87217909838336    27.46809292753901
O     4.51660224324406     0.90731517419008    27.37083542314846
O     7.34250654323132     0.79922780940888    27.39021409134710
O    10.31136802556564     0.96850127607660    27.39070430319166
O    13.34070660613928     0.97536445654708    27.45346455201139
O     1.38603404931902     0.91908352240060    30.62520409488913
O     4.50442553008890     0.91488462365524    30.48261765205551
O     7.50036620640482     0.85208100378724    30.50829972856799
O    10.30948835821904     0.93288135509894    30.55040283635927
O    13.45338728748500     0.79014477091138    30.57807878299867
O     1.34050173570664     0.78211400675764     9.42913535365052
O     4.67329051427874     0.78459892713094     9.44196577842607
O     7.41826655356572     0.91124191613396     9.51629130869072
O    10.36202849829366     0.83289162349700     9.40151907949234
O    13.42368295711396     0.92524007992676     9.46786519624658
O     1.39533666171824     0.78897004533162    20.01842955911939
O     4.39995135783948     0.88876859043672    19.95650592808845
O     7.38985489006686     0.94350664644922    20.05164111482592
O    10.30123382150680     0.87414574895732    19.95139092061348
O    13.44943354362240     0.86814840086064    19.99407166356446
O     0.02545726715918     3.30469703490538     6.31096792220774
O     2.87759397064906     3.34822755455848     6.32743406934621
O     5.88951855680334     3.48781606277272     6.35374735387584
O     8.98503745865174     3.36194843530130     6.40297142428536
O    11.95130973279454     3.44955410318652     6.29737054032634
O     0.05406330839750     3.48210326291872    16.86826676924388
O     2.94223718720556     3.41962851524344    16.91825249924995
O     5.97931687503252     3.47246630055742    16.86046180372486
O     8.97642802595246     3.32275668306706    16.86162443713803
O    11.78301233894524     3.39237146944140    16.88589506999316
O    14.78108847125490     3.33519512026164    27.44206564654051
O     3.04169392217458     3.36082183970248    27.42022703774869
O     5.85578966061364     3.46375235307896    27.38323222259190
O     8.94017290055646     3.48957027864348    27.37032378393746
O    11.92562623464866     3.32629829616644    27.43146982845215
O     0.06119233386604     3.50494203014704    30.58253826948722
O     2.93517089270192     3.40574424715902    30.49245649879331
O     5.98394945055192     3.42870237725016    30.47933480767012
O     8.96613430285508     3.46046620747714    30.54259815190023
O    11.74980011084194     3.35064053248562    30.50926793036524
O    14.73744094961932     3.46469170274154     9.47788763358709
O     3.01677945876094     3.42158787647588     9.38599161512178
O     6.11808757481010     3.45322171262976     9.52175862434129
O     8.83490561443200     3.35327045431558     9.46509608231937
O    11.96077386073718     3.35345193928508     9.44858821595289
O    14.77058203506900     3.51451610774278    20.01503328456372
O     3.03344674435658     3.42541995353562    19.95835339800525
O     5.99328955329584     3.35617398764770    20.04447269143346
O     8.83065905099724     3.38737683885746    19.98884086089605
O    11.83049302661594     3.32833671885782    19.94859338108574